/*--------------------------------*- C++ -*----------------------------------*\
| =========                 |                                                 |
| \\      /  F ield         | OpenFOAM: The Open Source CFD Toolbox           |
|  \\    /   O peration     | Version:  5                                     |
|   \\  /    A nd           | Web:      www.OpenFOAM.org                      |
|    \\/     M anipulation  |                                                 |
\*---------------------------------------------------------------------------*/
FoamFile
{
    version     2.0;
    format      ascii;
    class       dictionary;
    location    "system";
    object      controlDict;
}
// * * * * * * * * * * * * * * * * * * * * * * * * * * * * * * * * * * * * * //

application     simpleFoam;

startFrom       latestTime;

startTime       0;

stopAt          endTime;

endTime         1000;

deltaT          1;

writeControl    runTime;

writeInterval   10;

purgeWrite      2;

writeFormat     ascii;

writePrecision  6;

writeCompression off;

timeFormat      general;

timePrecision   6;

runTimeModifiable yes;

functions
{
    #includeFunc flowRatePatch(name=inlet)
    #includeFunc flowRatePatch(name=outlet)
    #includeFunc pressureDifferencePatch

    residuals
    {
        type               residuals;
        functionObjectLibs ("libutilityFunctionObjects.so")
        enabled            true;
        writeControl       timeStep;
        writeInterval      1;
        fields             (p U);
    }
}

// ************************************************************************* //
